<?xml version="1.0" encoding="UTF-8"?>

<!-- generated on 2025-05-21 11:59:35 by Eclipse SUMO netedit Version 1.23.1
<neteditConfiguration xmlns:xsi="http://www.w3.org/2001/XMLSchema-instance" xsi:noNamespaceSchemaLocation="http://sumo.dlr.de/xsd/neteditConfiguration.xsd">

    <input>
        <sumocfg-file value="C:\Users\maja\Desktop\parking1.sumocfg"/>
        <additional-files value="C:\Users\maja\Desktop\parking1.add.xml"/>
        <route-files value="C:\Users\maja\Desktop\parking1.rou.xml"/>
        <sumo-net-file value="C:\Users\maja\Desktop\parking1.net.xml"/>
    </input>

    <output>
        <output-file value="C:\Users\maja\Desktop\parking1.net.xml"/>
    </output>

    <processing>
        <offset.disable-normalization value="true"/>
    </processing>

    <junctions>
        <no-internal-links value="false"/>
        <no-turnarounds value="true"/>
    </junctions>

    <pedestrian>
        <walkingareas value="true"/>
    </pedestrian>

    <netedit>
        <new-network value="false"/>
    </netedit>

</neteditConfiguration>
-->

<net version="1.20" junctionCornerDetail="5" walkingareas="true" limitTurnSpeed="5.50" xmlns:xsi="http://www.w3.org/2001/XMLSchema-instance" xsi:noNamespaceSchemaLocation="http://sumo.dlr.de/xsd/net_file.xsd">

    <location netOffset="0.00,0.00" convBoundary="-337.98,-172.31,204.29,166.88" origBoundary="10000000000.00,10000000000.00,-10000000000.00,-10000000000.00" projParameter="!"/>

    <edge id=":J1_w0" function="walkingarea">
        <lane id=":J1_w0_0" index="0" allow="pedestrian" speed="2.78" length="0.10" width="10.00" shape="-331.40,-170.58 -311.40,-170.39"/>
    </edge>
    <edge id=":J10_0" function="internal">
        <lane id=":J10_0_0" index="0" speed="10.07" length="19.03" width="15.00" shape="-24.44,111.77 -19.38,111.01 -15.79,108.74 -13.66,104.96 -13.00,99.68"/>
    </edge>
    <edge id=":J10_1" function="internal">
        <lane id=":J10_1_0" index="0" speed="13.89" length="23.22" width="16.00" shape="-24.44,111.77 -1.34,111.69"/>
        <lane id=":J10_1_1" index="1" speed="13.89" length="23.22" width="16.00" shape="-24.43,127.77 -1.10,127.69"/>
    </edge>
    <edge id=":J10_w0" function="walkingarea">
        <lane id=":J10_w0_0" index="0" allow="pedestrian" speed="2.78" length="18.83" width="16.00" shape="-0.98,135.69 -1.45,103.69 -3.68,103.26 -4.47,102.70 -5.03,101.90 -5.38,100.86 -5.50,99.59 -20.50,99.77 -20.92,101.99 -21.47,102.77 -22.24,103.33 -23.23,103.66 -24.45,103.77 -24.42,135.77"/>
    </edge>
    <edge id=":J11_0" function="internal">
        <lane id=":J11_0_0" index="0" speed="10.07" length="18.92" width="16.00" shape="-15.50,-108.53 -16.27,-113.82 -18.42,-117.60 -21.97,-119.89 -26.91,-120.69"/>
    </edge>
    <edge id=":J11_1" function="internal">
        <lane id=":J11_1_0" index="0" speed="13.89" length="22.68" width="16.00" shape="-4.14,-120.55 -26.91,-120.69"/>
        <lane id=":J11_1_1" index="1" speed="13.89" length="22.68" width="16.00" shape="-4.18,-136.55 -26.78,-136.69"/>
    </edge>
    <edge id=":J11_w0" function="walkingarea">
        <lane id=":J11_w0_0" index="0" allow="pedestrian" speed="2.78" length="18.66" width="16.00" shape="-23.00,-108.44 -8.00,-108.62 -7.59,-110.80 -7.05,-111.56 -6.30,-112.11 -5.32,-112.44 -4.13,-112.55 -4.19,-144.55 -26.71,-144.69 -26.97,-112.69 -24.79,-112.20 -24.02,-111.61 -23.46,-110.79 -23.12,-109.73"/>
    </edge>
    <edge id=":J12_0" function="internal">
        <lane id=":J12_0_0" index="0" speed="10.11" length="18.94" width="15.00" shape="58.45,110.82 63.43,109.99 66.97,107.68 69.09,103.89 69.78,98.61"/>
    </edge>
    <edge id=":J12_1" function="internal">
        <lane id=":J12_1_0" index="0" speed="13.89" length="22.93" width="16.00" shape="58.45,110.82 81.56,110.57"/>
        <lane id=":J12_1_1" index="1" speed="13.89" length="22.93" width="16.00" shape="58.69,126.81 81.44,126.57"/>
    </edge>
    <edge id=":J12_w0" function="walkingarea">
        <lane id=":J12_w0_0" index="0" allow="pedestrian" speed="2.78" length="18.85" width="16.00" shape="81.39,134.57 81.61,102.57 79.21,102.11 78.37,101.56 77.76,100.78 77.40,99.79 77.28,98.58 62.28,98.64 61.85,100.94 61.30,101.74 60.53,102.33 59.54,102.68 58.34,102.82 58.80,134.81"/>
    </edge>
    <edge id=":J13_0" function="internal">
        <lane id=":J13_0_0" index="0" speed="10.02" length="18.95" width="16.00" shape="68.91,-108.69 68.17,-113.95 66.00,-117.69 62.41,-119.94 57.38,-120.68"/>
    </edge>
    <edge id=":J13_1" function="internal">
        <lane id=":J13_1_0" index="0" speed="13.89" length="23.26" width="16.00" shape="80.51,-120.65 57.38,-120.68"/>
        <lane id=":J13_1_1" index="1" speed="13.89" length="23.26" width="16.00" shape="80.75,-136.65 57.35,-136.68"/>
    </edge>
    <edge id=":J13_w0" function="walkingarea">
        <lane id=":J13_w0_0" index="0" allow="pedestrian" speed="2.78" length="18.80" width="16.00" shape="61.41,-108.66 76.41,-108.72 76.84,-110.93 77.40,-111.70 78.17,-112.24 79.17,-112.56 80.38,-112.65 80.87,-144.65 57.33,-144.68 57.40,-112.68 59.62,-112.24 60.40,-111.68 60.96,-110.90 61.29,-109.89"/>
    </edge>
    <edge id=":J14_0" function="internal">
        <lane id=":J14_0_0" index="0" speed="8.73" length="12.98" width="16.00" shape="146.76,111.02 150.29,110.55 152.81,109.05 154.32,106.54 154.82,103.01"/>
        <lane id=":J14_0_1" index="1" speed="13.59" length="38.95" width="16.00" shape="146.65,127.02 157.24,125.59 164.80,121.10 169.32,113.57 170.82,102.99"/>
    </edge>
    <edge id=":J14_w0" function="walkingarea">
        <lane id=":J14_w0_0" index="0" allow="pedestrian" speed="2.78" length="11.36" width="16.00" shape="178.82,102.98 146.82,103.02 146.60,135.02 156.46,134.20 164.52,131.56 170.79,127.12 175.26,120.88 177.94,112.83"/>
    </edge>
    <edge id=":J15_0" function="internal">
        <lane id=":J15_0_0" index="0" speed="8.73" length="12.75" width="16.00" shape="154.49,-111.66 153.99,-115.11 152.51,-117.59 150.05,-119.11 146.61,-119.65"/>
        <lane id=":J15_0_1" index="1" speed="13.59" length="38.24" width="16.00" shape="170.49,-111.69 169.00,-122.04 164.56,-129.48 157.18,-134.02 146.85,-135.65"/>
    </edge>
    <edge id=":J15_w0" function="walkingarea">
        <lane id=":J15_w0_0" index="0" allow="pedestrian" speed="2.78" length="11.22" width="16.00" shape="146.49,-111.65 178.49,-111.70 177.60,-121.33 174.97,-129.24 170.59,-135.42 164.46,-139.89 156.59,-142.63 146.97,-143.65 146.49,-111.65"/>
    </edge>
    <edge id=":J18_w0" function="walkingarea">
        <lane id=":J18_w0_0" index="0" allow="pedestrian" speed="2.78" length="0.29" width="3.20" shape="-268.38,101.67 -268.42,98.47 -268.68,98.48 -268.69,101.68"/>
    </edge>
    <edge id=":J19_w0" function="walkingarea">
        <lane id=":J19_w0_0" index="0" allow="pedestrian" speed="2.78" length="0.30" width="3.20" shape="-250.37,101.45 -250.38,98.25 -250.69,98.25 -250.65,101.45"/>
    </edge>
    <edge id=":J2_0" function="internal">
        <lane id=":J2_0_0" index="0" speed="10.17" length="19.12" width="16.00" shape="-296.02,-120.59 -301.19,-119.80 -304.89,-117.55 -307.13,-113.84 -307.91,-108.68"/>
        <lane id=":J2_0_1" index="1" speed="13.89" length="44.60" width="16.00" shape="-296.18,-136.59 -308.24,-134.75 -316.88,-129.50 -322.10,-120.85 -323.91,-108.79"/>
    </edge>
    <edge id=":J2_2" function="internal">
        <lane id=":J2_2_0" index="0" speed="13.89" length="40.29" width="16.00" shape="-316.61,-148.42 -315.28,-139.39 -312.27,-128.55 -309.25,-117.70 -307.91,-108.68"/>
        <lane id=":J2_2_1" index="1" speed="13.89" length="40.29" width="16.00" shape="-326.61,-148.51 -323.91,-108.79"/>
    </edge>
    <edge id=":J2_w0" function="walkingarea">
        <lane id=":J2_w0_0" index="0" allow="pedestrian" speed="2.78" length="30.71" width="16.00" shape="-295.95,-112.59 -296.26,-144.59 -300.96,-144.65 -304.80,-144.94 -307.79,-145.46 -309.92,-146.20 -311.19,-147.17 -311.61,-148.37 -331.61,-148.56 -331.91,-108.85 -299.91,-108.62 -299.45,-110.81 -298.90,-111.58 -298.13,-112.13 -297.15,-112.47"/>
    </edge>
    <edge id=":J20_w0" function="walkingarea">
        <lane id=":J20_w0_0" index="0" allow="pedestrian" speed="2.78" length="0.30" width="3.20" shape="-187.48,101.22 -187.50,98.02 -187.80,98.03 -187.79,101.23"/>
    </edge>
    <edge id=":J21_w0" function="walkingarea">
        <lane id=":J21_w0_0" index="0" allow="pedestrian" speed="2.78" length="0.29" width="3.20" shape="-168.45,101.11 -168.44,97.91 -168.75,97.91 -168.73,101.11"/>
    </edge>
    <edge id=":J22_w0" function="walkingarea">
        <lane id=":J22_w0_0" index="0" allow="pedestrian" speed="2.78" length="0.30" width="3.20" shape="-105.13,101.45 -105.09,98.25 -105.39,98.25 -105.41,101.45"/>
    </edge>
    <edge id=":J23_w0" function="walkingarea">
        <lane id=":J23_w0_0" index="0" allow="pedestrian" speed="2.78" length="0.29" width="3.20" shape="-87.20,101.68 -87.19,98.48 -87.47,98.47 -87.51,101.67"/>
    </edge>
    <edge id=":J24_w0" function="walkingarea">
        <lane id=":J24_w0_0" index="0" allow="pedestrian" speed="2.78" length="0.28" width="3.20" shape="-23.08,101.79 -23.14,98.59 -23.39,98.59 -23.40,101.79"/>
    </edge>
    <edge id=":J25_w0" function="walkingarea">
        <lane id=":J25_w0_0" index="0" allow="pedestrian" speed="2.78" length="0.28" width="3.20" shape="-3.63,101.45 -3.61,98.25 -3.93,98.25 -3.87,101.45"/>
    </edge>
    <edge id=":J26_w0" function="walkingarea">
        <lane id=":J26_w0_0" index="0" allow="pedestrian" speed="2.78" length="0.27" width="3.20" shape="59.51,101.67 59.44,98.47 59.21,98.48 59.20,101.68"/>
    </edge>
    <edge id=":J27_w0" function="walkingarea">
        <lane id=":J27_w0_0" index="0" allow="pedestrian" speed="2.78" length="0.26" width="3.20" shape="76.70,101.34 76.72,98.14 76.42,98.14 76.48,101.34"/>
    </edge>
    <edge id=":J28_w0" function="walkingarea">
        <lane id=":J28_w0_0" index="0" allow="pedestrian" speed="2.78" length="0.27" width="3.20" shape="140.74,101.79 140.69,98.59 140.46,98.59 140.43,101.79"/>
    </edge>
    <edge id=":J3_0" function="internal">
        <lane id=":J3_0_0" index="0" speed="8.73" length="12.84" width="16.00" shape="-309.44,103.50 -308.97,106.99 -307.50,109.49 -305.02,111.02 -301.55,111.56"/>
        <lane id=":J3_0_1" index="1" speed="13.59" length="38.53" width="16.00" shape="-325.44,103.39 -324.03,113.84 -319.61,121.36 -312.19,125.93 -301.76,127.56"/>
    </edge>
    <edge id=":J3_w0" function="walkingarea">
        <lane id=":J3_w0_0" index="0" allow="pedestrian" speed="2.78" length="11.28" width="16.00" shape="-301.87,135.56 -301.44,103.56 -333.44,103.33 -332.63,113.06 -330.03,121.04 -325.66,127.29 -319.51,131.79 -311.58,134.54"/>
    </edge>
    <edge id=":J30_w0" function="walkingarea">
        <lane id=":J30_w0_0" index="0" allow="pedestrian" speed="2.78" length="0.30" width="3.20" shape="-268.29,-107.79 -268.25,-110.99 -268.55,-110.99 -268.58,-107.79"/>
    </edge>
    <edge id=":J31_w0" function="walkingarea">
        <lane id=":J31_w0_0" index="0" allow="pedestrian" speed="2.78" length="0.28" width="3.20" shape="-250.70,-107.57 -250.72,-110.77 -250.97,-110.77 -251.01,-107.57"/>
    </edge>
    <edge id=":J32_w0" function="walkingarea">
        <lane id=":J32_w0_0" index="0" allow="pedestrian" speed="2.78" length="0.29" width="3.20" shape="-185.93,-107.90 -185.91,-111.10 -186.22,-111.10 -186.20,-107.90"/>
    </edge>
    <edge id=":J33_w0" function="walkingarea">
        <lane id=":J33_w0_0" index="0" allow="pedestrian" speed="2.78" length="0.30" width="3.20" shape="-168.90,-107.79 -168.89,-110.99 -169.18,-110.99 -169.20,-107.79"/>
    </edge>
    <edge id=":J34_w0" function="walkingarea">
        <lane id=":J34_w0_0" index="0" allow="pedestrian" speed="2.78" length="0.30" width="3.20" shape="-104.42,-107.50 -104.42,-110.70 -104.72,-110.70 -104.73,-107.50"/>
    </edge>
    <edge id=":J35_w0" function="walkingarea">
        <lane id=":J35_w0_0" index="0" allow="pedestrian" speed="2.78" length="0.30" width="3.20" shape="-87.39,-107.50 -87.38,-110.70 -87.68,-110.70 -87.68,-107.50"/>
    </edge>
    <edge id=":J36_w0" function="walkingarea">
        <lane id=":J36_w0_0" index="0" allow="pedestrian" speed="2.78" length="0.30" width="3.20" shape="-23.22,-107.32 -23.24,-110.52 -23.52,-110.52 -23.53,-107.32"/>
    </edge>
    <edge id=":J37_w0" function="walkingarea">
        <lane id=":J37_w0_0" index="0" allow="pedestrian" speed="2.78" length="0.30" width="3.20" shape="-4.79,-107.41 -4.79,-110.61 -5.10,-110.61 -5.08,-107.41"/>
    </edge>
    <edge id=":J38_w0" function="walkingarea">
        <lane id=":J38_w0_0" index="0" allow="pedestrian" speed="2.78" length="0.30" width="3.20" shape="58.99,-107.41 59.01,-110.61 58.70,-110.61 58.70,-107.41"/>
    </edge>
    <edge id=":J39_w0" function="walkingarea">
        <lane id=":J39_w0_0" index="0" allow="pedestrian" speed="2.78" length="0.30" width="3.20" shape="78.09,-107.32 78.08,-110.52 77.80,-110.52 77.78,-107.32"/>
    </edge>
    <edge id=":J4_0" function="internal">
        <lane id=":J4_0_0" index="0" speed="10.05" length="19.10" width="15.00" shape="-270.51,111.98 -265.41,111.29 -261.78,109.06 -259.62,105.29 -258.93,99.98"/>
    </edge>
    <edge id=":J4_1" function="internal">
        <lane id=":J4_1_0" index="0" speed="13.89" length="23.23" width="16.00" shape="-270.51,111.98 -247.39,112.24"/>
        <lane id=":J4_1_1" index="1" speed="13.89" length="23.23" width="16.00" shape="-270.72,127.98 -247.38,128.24"/>
    </edge>
    <edge id=":J4_w0" function="walkingarea">
        <lane id=":J4_w0_0" index="0" allow="pedestrian" speed="2.78" length="18.88" width="16.00" shape="-247.37,136.24 -247.40,104.24 -249.63,103.76 -250.41,103.16 -250.97,102.32 -251.31,101.24 -251.43,99.92 -266.43,100.03 -266.86,102.25 -267.41,103.02 -268.18,103.56 -269.18,103.88 -270.40,103.98 -270.83,135.98"/>
    </edge>
    <edge id=":J40_w0" function="walkingarea">
        <lane id=":J40_w0_0" index="0" allow="pedestrian" speed="2.78" length="0.29" width="3.20" shape="141.32,-107.50 141.27,-110.70 141.00,-110.70 141.01,-107.50"/>
    </edge>
    <edge id=":J42_w0" function="walkingarea">
        <lane id=":J42_w0_0" index="0" allow="pedestrian" speed="2.78" length="4.38" width="3.20" shape="200.63,-170.81 203.83,-170.83 203.29,-173.43 202.64,-174.34 201.72,-174.99 200.55,-175.38 199.12,-175.51 199.12,-172.31 199.95,-172.14 200.25,-171.93 200.46,-171.64 200.59,-171.27"/>
    </edge>
    <edge id=":J44_w0" function="walkingarea">
        <lane id=":J44_w0_0" index="0" allow="pedestrian" speed="2.78" length="2.26" width="3.20" shape="203.28,163.56 200.08,163.54 200.08,166.74 201.85,166.39 202.47,165.95 202.92,165.33 203.18,164.53"/>
    </edge>
    <edge id=":J45_w0" function="walkingarea">
        <lane id=":J45_w0_0" index="0" allow="pedestrian" speed="2.78" length="5.01" width="3.20" shape="203.67,96.15 200.47,96.14 200.29,96.98 200.08,97.27 199.77,97.49 199.38,97.62 198.90,97.67 198.95,100.87 199.79,101.02 200.08,101.22 200.28,101.51 200.41,101.88 200.45,102.34 203.65,102.36"/>
    </edge>
    <edge id=":J46_w0" function="walkingarea">
        <lane id=":J46_w0_0" index="0" allow="pedestrian" speed="2.78" length="5.00" width="3.20" shape="204.26,-113.27 201.06,-113.24 200.89,-112.41 200.68,-112.11 200.38,-111.90 200.00,-111.77 199.53,-111.72 199.59,-108.52 200.42,-108.37 200.71,-108.16 200.92,-107.87 201.04,-107.50 201.09,-107.04 204.29,-107.03"/>
    </edge>
    <edge id=":J5_0" function="internal">
        <lane id=":J5_0_0" index="0" speed="10.01" length="18.97" width="16.00" shape="-260.50,-108.92 -261.26,-114.17 -263.45,-117.90 -267.06,-120.12 -272.11,-120.82"/>
    </edge>
    <edge id=":J5_1" function="internal">
        <lane id=":J5_1_0" index="0" speed="13.89" length="23.25" width="16.00" shape="-248.99,-120.99 -272.11,-120.82"/>
        <lane id=":J5_1_1" index="1" speed="13.89" length="23.25" width="16.00" shape="-248.90,-136.99 -272.26,-136.82"/>
    </edge>
    <edge id=":J5_w0" function="walkingarea">
        <lane id=":J5_w0_0" index="0" allow="pedestrian" speed="2.78" length="18.81" width="16.00" shape="-268.00,-108.86 -253.00,-108.98 -252.57,-111.21 -252.02,-111.99 -251.25,-112.55 -250.25,-112.88 -249.03,-112.99 -248.85,-144.99 -272.34,-144.82 -272.03,-112.82 -269.80,-112.40 -269.02,-111.85 -268.46,-111.08 -268.12,-110.08"/>
    </edge>
    <edge id=":J6_0" function="internal">
        <lane id=":J6_0_0" index="0" speed="10.08" length="18.96" width="15.00" shape="-189.55,112.18 -184.52,111.42 -180.92,109.17 -178.77,105.42 -178.06,100.16"/>
    </edge>
    <edge id=":J6_1" function="internal">
        <lane id=":J6_1_0" index="0" speed="13.89" length="23.04" width="16.00" shape="-189.55,112.18 -166.53,112.14"/>
        <lane id=":J6_1_1" index="1" speed="13.89" length="23.04" width="16.00" shape="-189.53,128.18 -166.47,128.14"/>
    </edge>
    <edge id=":J6_w0" function="walkingarea">
        <lane id=":J6_w0_0" index="0" allow="pedestrian" speed="2.78" length="18.76" width="16.00" shape="-166.44,136.14 -166.56,104.14 -168.78,103.71 -169.56,103.15 -170.11,102.38 -170.45,101.37 -170.56,100.15 -185.56,100.17 -186.00,102.40 -186.56,103.18 -187.33,103.73 -188.33,104.07 -189.56,104.18 -189.52,136.18"/>
    </edge>
    <edge id=":J7_0" function="internal">
        <lane id=":J7_0_0" index="0" speed="10.03" length="18.94" width="16.00" shape="-178.43,-108.57 -179.15,-113.83 -181.30,-117.60 -184.87,-119.88 -189.86,-120.66"/>
    </edge>
    <edge id=":J7_1" function="internal">
        <lane id=":J7_1_0" index="0" speed="13.89" length="22.73" width="16.00" shape="-167.02,-120.58 -189.86,-120.66"/>
        <lane id=":J7_1_1" index="1" speed="13.89" length="22.73" width="16.00" shape="-167.14,-136.58 -189.77,-136.65"/>
    </edge>
    <edge id=":J7_w0" function="walkingarea">
        <lane id=":J7_w0_0" index="0" allow="pedestrian" speed="2.78" length="18.68" width="16.00" shape="-185.93,-108.55 -170.93,-108.58 -170.49,-110.79 -169.94,-111.56 -169.17,-112.12 -168.18,-112.46 -166.96,-112.58 -167.20,-144.58 -189.73,-144.65 -189.91,-112.66 -187.70,-112.19 -186.93,-111.62 -186.37,-110.82 -186.04,-109.80"/>
    </edge>
    <edge id=":J8_0" function="internal">
        <lane id=":J8_0_0" index="0" speed="10.10" length="18.94" width="15.00" shape="-107.02,111.92 -102.03,111.15 -98.46,108.88 -96.30,105.11 -95.57,99.85"/>
    </edge>
    <edge id=":J8_1" function="internal">
        <lane id=":J8_1_0" index="0" speed="13.89" length="22.89" width="16.00" shape="-107.02,111.92 -84.11,111.85"/>
        <lane id=":J8_1_1" index="1" speed="13.89" length="22.89" width="16.00" shape="-106.96,127.92 -84.09,127.85"/>
    </edge>
    <edge id=":J8_w0" function="walkingarea">
        <lane id=":J8_w0_0" index="0" allow="pedestrian" speed="2.78" length="18.72" width="16.00" shape="-84.08,135.85 -84.12,103.85 -86.32,103.41 -87.09,102.86 -87.64,102.09 -87.96,101.09 -88.07,99.88 -103.07,99.82 -103.52,102.09 -104.07,102.89 -104.85,103.46 -105.84,103.80 -107.05,103.92 -106.93,135.92"/>
    </edge>
    <edge id=":J9_0" function="internal">
        <lane id=":J9_0_0" index="0" speed="13.89" length="23.25" width="16.00" shape="-83.05,-121.14 -106.17,-121.03"/>
        <lane id=":J9_0_1" index="1" speed="13.89" length="23.25" width="16.00" shape="-82.92,-137.14 -106.29,-137.03"/>
    </edge>
    <edge id=":J9_2" function="internal">
        <lane id=":J9_2_0" index="0" speed="9.99" length="19.04" width="16.00" shape="-94.63,-109.02 -95.33,-114.31 -97.49,-118.07 -101.10,-120.31 -106.17,-121.03"/>
    </edge>
    <edge id=":J9_w0" function="walkingarea">
        <lane id=":J9_w0_0" index="0" allow="pedestrian" speed="2.78" length="18.85" width="16.00" shape="-83.11,-113.14 -82.86,-145.14 -106.35,-145.03 -106.11,-113.03 -103.89,-112.60 -103.12,-112.05 -102.57,-111.28 -102.24,-110.28 -102.13,-109.06 -87.13,-108.99 -86.68,-111.31 -86.12,-112.12 -85.34,-112.69 -84.34,-113.03"/>
    </edge>

    <edge id="E0" from="J1" to="J2" priority="1" length="9.00">
        <lane id="E0_0" index="0" speed="13.89" length="9.00" width="10.00" shape="-316.40,-170.44 -316.61,-148.42"/>
        <lane id="E0_1" index="1" speed="13.89" length="9.00" width="10.00" shape="-326.40,-170.53 -326.61,-148.51"/>
    </edge>
    <edge id="E1" from="J2" to="J3" priority="1" length="50.00">
        <lane id="E1_0" index="0" speed="13.89" length="50.00" width="16.00" shape="-307.91,-108.68 -309.44,103.50"/>
        <lane id="E1_1" index="1" speed="13.89" length="50.00" width="16.00" shape="-323.91,-108.79 -325.44,103.39"/>
    </edge>
    <edge id="E10" from="J9" to="J7" priority="1" length="16.00">
        <lane id="E10_0" index="0" speed="13.89" length="16.00" width="16.00" shape="-106.17,-121.03 -167.02,-120.58"/>
        <lane id="E10_1" index="1" speed="13.89" length="16.00" width="16.00" shape="-106.29,-137.03 -167.14,-136.58"/>
    </edge>
    <edge id="E11" from="J8" to="J10" priority="1" length="16.00">
        <lane id="E11_0" index="0" speed="13.89" length="16.00" width="16.00" shape="-84.11,111.85 -24.44,111.77"/>
        <lane id="E11_1" index="1" speed="13.89" length="16.00" width="16.00" shape="-84.09,127.85 -24.43,127.77"/>
    </edge>
    <edge id="E12" from="J10" to="J11" priority="-1" length="50.00">
        <lane id="E12_0" index="0" speed="13.89" length="50.00" width="15.00" shape="-13.00,99.68 -15.50,-108.53"/>
    </edge>
    <edge id="E13" from="J11" to="J9" priority="1" length="16.00">
        <lane id="E13_0" index="0" speed="13.89" length="16.00" width="16.00" shape="-26.91,-120.69 -83.05,-121.14"/>
        <lane id="E13_1" index="1" speed="13.89" length="16.00" width="16.00" shape="-26.78,-136.69 -82.92,-137.14"/>
    </edge>
    <edge id="E14" from="J10" to="J12" priority="1" length="16.00" shape="-5.07,135.75 77.43,134.54">
        <lane id="E14_0" index="0" speed="13.89" length="16.00" width="16.00" shape="-1.34,111.69 58.45,110.82"/>
        <lane id="E14_1" index="1" speed="13.89" length="16.00" width="16.00" shape="-1.10,127.69 58.69,126.81"/>
    </edge>
    <edge id="E15" from="J12" to="J13" priority="-1" length="50.00">
        <lane id="E15_0" index="0" speed="13.89" length="50.00" width="15.00" shape="69.78,98.61 68.91,-108.69"/>
    </edge>
    <edge id="E16" from="J13" to="J11" priority="1" length="16.00">
        <lane id="E16_0" index="0" speed="13.89" length="16.00" width="16.00" shape="57.38,-120.68 -4.14,-120.55"/>
        <lane id="E16_1" index="1" speed="13.89" length="16.00" width="16.00" shape="57.35,-136.68 -4.18,-136.55"/>
    </edge>
    <edge id="E17" from="J12" to="J14" priority="1" length="16.00" shape="77.43,134.54 178.87,135.25">
        <lane id="E17_0" index="0" speed="13.89" length="16.00" width="16.00" shape="81.56,110.57 146.76,111.02"/>
        <lane id="E17_1" index="1" speed="13.89" length="16.00" width="16.00" shape="81.44,126.57 146.65,127.02"/>
    </edge>
    <edge id="E18" from="J14" to="J15" priority="1" length="50.00">
        <lane id="E18_0" index="0" speed="13.89" length="50.00" width="16.00" shape="154.82,103.01 154.49,-111.66"/>
        <lane id="E18_1" index="1" speed="13.89" length="50.00" width="16.00" shape="170.82,102.99 170.49,-111.69"/>
    </edge>
    <edge id="E19" from="J15" to="J13" priority="1" length="19.00">
        <lane id="E19_0" index="0" speed="13.89" length="19.00" width="16.00" shape="146.61,-119.65 80.51,-120.65"/>
        <lane id="E19_1" index="1" speed="13.89" length="19.00" width="16.00" shape="146.85,-135.65 80.75,-136.65"/>
    </edge>
    <edge id="E2" from="J3" to="J4" priority="1" length="13.00">
        <lane id="E2_0" index="0" speed="13.89" length="13.00" width="16.00" shape="-301.55,111.56 -270.51,111.98"/>
        <lane id="E2_1" index="1" speed="13.89" length="13.00" width="16.00" shape="-301.76,127.56 -270.72,127.98"/>
    </edge>
    <edge id="E20" from="J17" to="J18" priority="-1" type="walkingarea" length="7.00">
        <lane id="E20_0" index="0" allow="pedestrian" speed="13.89" length="7.00" shape="-301.32,99.96 -268.69,100.08"/>
    </edge>
    <edge id="E21" from="J18" to="J19" priority="-1" type="walkingarea" length="3.00">
        <lane id="E21_0" index="0" allow="pedestrian" speed="13.89" length="3.00" shape="-268.40,100.07 -250.67,99.85"/>
    </edge>
    <edge id="E22" from="J19" to="J20" priority="-1" length="13.00">
        <lane id="E22_0" index="0" allow="pedestrian" speed="13.89" length="13.00" shape="-250.37,99.85 -187.79,99.63"/>
    </edge>
    <edge id="E23" from="J20" to="J21" priority="-1" length="3.00">
        <lane id="E23_0" index="0" allow="pedestrian" speed="13.89" length="3.00" shape="-187.49,99.62 -168.74,99.51"/>
    </edge>
    <edge id="E24" from="J21" to="J22" priority="-1" length="13.00">
        <lane id="E24_0" index="0" allow="pedestrian" speed="13.89" length="13.00" shape="-168.45,99.51 -105.40,99.85"/>
    </edge>
    <edge id="E25" from="J22" to="J23" priority="-1" length="3.00">
        <lane id="E25_0" index="0" allow="pedestrian" speed="13.89" length="3.00" shape="-105.11,99.85 -87.49,100.07"/>
    </edge>
    <edge id="E26" from="J23" to="J24" priority="-1" length="13.00">
        <lane id="E26_0" index="0" allow="pedestrian" speed="13.89" length="13.00" shape="-87.19,100.08 -23.39,100.19"/>
    </edge>
    <edge id="E27" from="J24" to="J25" priority="-1" length="3.00">
        <lane id="E27_0" index="0" allow="pedestrian" speed="13.89" length="3.00" shape="-23.11,100.19 -3.90,99.85"/>
    </edge>
    <edge id="E28" from="J25" to="J26" priority="-1" length="13.00">
        <lane id="E28_0" index="0" allow="pedestrian" speed="13.89" length="13.00" shape="-3.62,99.85 59.20,100.08"/>
    </edge>
    <edge id="E29" from="J26" to="J27" priority="-1" length="3.00">
        <lane id="E29_0" index="0" allow="pedestrian" speed="13.89" length="3.00" shape="59.47,100.07 76.45,99.74"/>
    </edge>
    <edge id="E3" from="J4" to="J5" priority="-1" length="50.00">
        <lane id="E3_0" index="0" speed="13.89" length="50.00" width="15.00" shape="-258.93,99.98 -260.50,-108.92"/>
    </edge>
    <edge id="E30" from="J27" to="J28" priority="-1" length="13.00">
        <lane id="E30_0" index="0" allow="pedestrian" speed="13.89" length="13.00" shape="76.71,99.74 140.45,100.19"/>
    </edge>
    <edge id="E31" from="J29" to="J30" priority="-1" length="7.00">
        <lane id="E31_0" index="0" allow="pedestrian" speed="13.89" length="7.00" shape="-299.86,-109.62 -268.57,-109.39"/>
    </edge>
    <edge id="E32" from="J30" to="J31" priority="-1" length="3.00">
        <lane id="E32_0" index="0" allow="pedestrian" speed="13.89" length="3.00" shape="-268.27,-109.39 -250.99,-109.17"/>
    </edge>
    <edge id="E33" from="J31" to="J32" priority="-1" length="13.00">
        <lane id="E33_0" index="0" allow="pedestrian" speed="13.89" length="13.00" shape="-250.71,-109.17 -186.21,-109.50"/>
    </edge>
    <edge id="E34" from="J32" to="J33" priority="-1" length="7.00">
        <lane id="E34_0" index="0" allow="pedestrian" speed="13.89" length="7.00" shape="-185.92,-109.50 -169.19,-109.39"/>
    </edge>
    <edge id="E35" from="J33" to="J34" priority="-1" length="13.00">
        <lane id="E35_0" index="0" allow="pedestrian" speed="13.89" length="13.00" shape="-168.89,-109.39 -104.72,-109.10"/>
    </edge>
    <edge id="E36" from="J34" to="J35" priority="-1" length="3.00">
        <lane id="E36_0" index="0" allow="pedestrian" speed="13.89" length="3.00" shape="-104.42,-109.10 -87.68,-109.10"/>
    </edge>
    <edge id="E37" from="J35" to="J36" priority="-1" length="13.00">
        <lane id="E37_0" index="0" allow="pedestrian" speed="13.89" length="13.00" shape="-87.38,-109.10 -23.53,-108.92"/>
    </edge>
    <edge id="E38" from="J36" to="J37" priority="-1" length="3.00">
        <lane id="E38_0" index="0" allow="pedestrian" speed="13.89" length="3.00" shape="-23.23,-108.92 -5.09,-109.01"/>
    </edge>
    <edge id="E39" from="J37" to="J38" priority="-1" length="13.00">
        <lane id="E39_0" index="0" allow="pedestrian" speed="13.89" length="13.00" shape="-4.79,-109.01 58.70,-109.01"/>
    </edge>
    <edge id="E4" from="J5" to="J2" priority="1" length="13.00">
        <lane id="E4_0" index="0" speed="13.89" length="13.00" width="16.00" shape="-272.11,-120.82 -296.02,-120.59"/>
        <lane id="E4_1" index="1" speed="13.89" length="13.00" width="16.00" shape="-272.26,-136.82 -296.18,-136.59"/>
    </edge>
    <edge id="E40" from="J38" to="J39" priority="-1" length="3.00">
        <lane id="E40_0" index="0" allow="pedestrian" speed="13.89" length="3.00" shape="59.00,-109.01 77.79,-108.92"/>
    </edge>
    <edge id="E41" from="J39" to="J40" priority="-1" length="13.00">
        <lane id="E41_0" index="0" allow="pedestrian" speed="13.89" length="13.00" shape="78.09,-108.92 141.01,-109.10"/>
    </edge>
    <edge id="E42" from="J41" to="J42" priority="-1" length="100.00">
        <lane id="E42_0" index="0" allow="pedestrian" speed="13.89" length="100.00" shape="-302.95,-173.60 199.12,-173.91"/>
    </edge>
    <edge id="E43" from="J43" to="J44" priority="-1" length="110.00">
        <lane id="E43_0" index="0" allow="pedestrian" speed="13.89" length="110.00" shape="-337.98,165.28 200.08,165.14"/>
    </edge>
    <edge id="E44" from="J44" to="J45" priority="-1" length="13.00">
        <lane id="E44_0" index="0" allow="pedestrian" speed="13.89" length="13.00" shape="201.68,163.55 202.05,102.35"/>
    </edge>
    <edge id="E45" from="J28" to="J45" priority="-1" length="11.00">