<?xml version="1.0" encoding="UTF-8"?>

<!-- generated on 2025-05-21 11:19:24 by Eclipse SUMO sumo Version 1.23.1
-->

<sumoConfiguration xmlns:xsi="http://www.w3.org/2001/XMLSchema-instance" xsi:noNamespaceSchemaLocation="http://sumo.dlr.de/xsd/sumoConfiguration.xsd">

    <input>
        <net-file value="parking1.net.xml"/>
        <route-files value="parking1.rou.xml"/>
        <additional-files value="parking1.add.xml"/>
    </input>

</sumoConfiguration>
