<?xml version="1.0" encoding="UTF-8"?>

<!-- generated on 2025-05-21 11:19:24 by Eclipse SUMO netedit Version 1.23.1
-->

<additional xmlns:xsi="http://www.w3.org/2001/XMLSchema-instance" xsi:noNamespaceSchemaLocation="http://sumo.dlr.de/xsd/additional_file.xsd">
    <!-- StoppingPlaces -->
    <parkingArea id="pa_0" lane="E4_0" startPos="30.18" endPos="40.18">
        <space x="-296.03" y="-170.51" width="12" length="23"/>
        <space x="-281.46" y="-170.75" width="12" length="23"/>
        <space x="-266.68" y="-170.52" width="12" length="23"/>
    </parkingArea>
    <parkingArea id="pa_1" lane="E7_0" startPos="33.58" endPos="43.58">
        <space x="-251.08" y="-170.69" width="12" length="23"/>
        <space x="-235.99" y="-170.69" width="12" length="23"/>
        <space x="-221.14" y="-170.69" width="12" length="23"/>
        <space x="-206.39" y="-170.60" width="12" length="23"/>
        <space x="-191.38" y="-170.77" width="12" length="23"/>
    </parkingArea>
    <parkingArea id="pa_10" lane="E11_0" startPos="35.27" endPos="45.27">
        <space x="-77.00" y="139.23" width="12" length="23"/>
        <space x="-62.20" y="139.29" width="12" length="23"/>
        <space x="-46.24" y="139.23" width="12" length="23"/>
        <space x="-31.39" y="139.29" width="12" length="23"/>
        <space x="-17.33" y="139.41" width="12" length="23"/>
    </parkingArea>
    <parkingArea id="pa_11" lane="E14_0" startPos="33.14" endPos="43.14">
        <space x="-2.88" y="139.18" width="12" length="23"/>
        <space x="12.62" y="139.12" width="12" length="23"/>
        <space x="27.36" y="139.18" width="12" length="23"/>
        <space x="41.99" y="139.23" width="12" length="23"/>
        <space x="57.77" y="139.12" width="12" length="23"/>
    </parkingArea>
    <parkingArea id="pa_12" lane="E17_0" startPos="30.71" endPos="40.71">
        <space x="72.51" y="139.12" width="12" length="23"/>
        <space x="89.62" y="139.35" width="16" length="23"/>
        <space x="109.55" y="139.23" width="16" length="23"/>
        <space x="129.99" y="139.46" width="16" length="23"/>
        <space x="149.46" y="139.35" width="16" length="23"/>
        <space x="169.50" y="139.18" width="16" length="23"/>
        <space x="190.06" y="139.29" width="16" length="23"/>
    </parkingArea>
    <parkingArea id="pa_13" lane="E3_0" startPos="114.19" endPos="124.19">
        <space x="-224.80" y="-97.88" width="12" length="23" angle="68.00"/>
        <space x="-224.88" y="-82.45" width="12" length="23" angle="68.00"/>
        <space x="-224.63" y="-67.35" width="12" length="23" angle="68.00"/>
        <space x="-224.71" y="-52.18" width="12" length="23" angle="68.00"/>
        <space x="-224.45" y="-37.18" width="12" length="23" angle="68.00"/>
        <space x="-224.96" y="-22.00" width="12" length="23" angle="68.00"/>
        <space x="-225.13" y="-7.16" width="12" length="23" angle="68.00"/>
        <space x="-225.04" y="7.43" width="12" length="23" angle="68.00"/>
        <space x="-225.04" y="22.27" width="12" length="23" angle="68.00"/>
        <space x="-224.54" y="37.45" width="12" length="23" angle="68.00"/>
        <space x="-224.79" y="51.78" width="12" length="23" angle="68.00"/>
        <space x="-224.62" y="66.63" width="12" length="23" angle="68.00"/>
        <space x="-224.45" y="82.14" width="12" length="23" angle="68.00"/>
        <space x="-274.20" y="-89.23" width="12" length="23" angle="112.00"/>
        <space x="-274.47" y="-74.78" width="12" length="23" angle="112.00"/>
        <space x="-274.52" y="-59.55" width="12" length="23" angle="112.00"/>
        <space x="-274.05" y="-43.84" width="12" length="23" angle="112.00"/>
        <space x="-274.47" y="-29.34" width="12" length="23" angle="112.00"/>
        <space x="-274.52" y="-14.41" width="12" length="23" angle="112.00"/>
        <space x="-274.31" y="0.93" width="12" length="23" angle="112.00"/>
        <space x="-274.31" y="15.23" width="12" length="23" angle="112.00"/>
        <space x="-274.17" y="30.77" width="12" length="23" angle="112.00"/>
        <space x="-274.10" y="45.48" width="12" length="23" angle="112.00"/>
        <space x="-274.24" y="60.74" width="12" length="23" angle="112.00"/>
        <space x="-274.20" y="74.93" width="12" length="23" angle="112.00"/>
        <space x="-273.85" y="90.54" width="12" length="23" angle="112.00"/>
    </parkingArea>
    <parkingArea id="pa_14" lane="E6_0" startPos="118.62" endPos="128.62">
        <space x="-191.82" y="90.48" width="12" length="23" angle="112.00"/>
        <space x="-191.68" y="76.01" width="12" length="23" angle="112.00"/>
        <space x="-191.49" y="60.92" width="12" length="23" angle="112.00"/>
        <space x="-191.59" y="45.41" width="12" length="23" angle="112.00"/>
        <space x="-191.63" y="30.79" width="12" length="23" angle="112.00"/>
        <space x="-191.92" y="15.85" width="12" length="23" angle="112.00"/>
        <space x="-191.73" y="1.24" width="12" length="23" angle="112.00"/>
        <space x="-191.49" y="-13.58" width="12" length="23" angle="112.00"/>
        <space x="-191.81" y="-28.29" width="12" length="23" angle="112.00"/>
        <space x="-191.81" y="-43.73" width="12" length="23" angle="112.00"/>
        <space x="-191.60" y="-59.12" width="12" length="23" angle="112.00"/>
        <space x="-191.49" y="-73.99" width="12" length="23" angle="112.00"/>
        <space x="-191.49" y="-88.97" width="12" length="23" angle="112.00"/>
        <space x="-141.30" y="81.91" width="12" length="23" angle="68.00"/>
        <space x="-141.89" y="67.26" width="12" length="23" angle="68.00"/>
        <space x="-142.45" y="52.33" width="12" length="23" angle="68.00"/>
        <space x="-141.89" y="37.58" width="12" length="23" angle="68.00"/>
        <space x="-141.98" y="21.72" width="12" length="23" angle="68.00"/>
        <space x="-142.17" y="7.43" width="12" length="23" angle="68.00"/>
        <space x="-141.80" y="-7.41" width="12" length="23" angle="68.00"/>
        <space x="-142.26" y="-22.34" width="12" length="23" angle="68.00"/>
        <space x="-142.26" y="-37.55" width="12" length="23" angle="68.00"/>
        <space x="-142.35" y="-52.12" width="12" length="23" angle="68.00"/>
        <space x="-142.45" y="-67.33" width="12" length="23" angle="68.00"/>
        <space x="-142.26" y="-82.45" width="12" length="23" angle="68.00"/>
        <space x="-142.26" y="-97.29" width="12" length="23" angle="68.00"/>
    </parkingArea>
    <parkingArea id="pa_15" lane="E9_0" startPos="123.49" endPos="133.49">
        <space x="-109.43" y="90.85" width="12" length="23" angle="112.00"/>
        <space x="-109.78" y="75.87" width="12" length="23" angle="112.00"/>
        <space x="-109.72" y="60.03" width="12" length="23" angle="112.00"/>
        <space x="-109.55" y="45.92" width="12" length="23" angle="112.00"/>
        <space x="-109.88" y="31.06" width="12" length="23" angle="112.00"/>
        <space x="-109.42" y="16.43" width="12" length="23" angle="112.00"/>
        <space x="-109.54" y="1.98" width="12" length="23" angle="112.00"/>
        <space x="-109.78" y="-13.87" width="12" length="23" angle="112.00"/>
        <space x="-109.75" y="-29.15" width="12" length="23" angle="112.00"/>
        <space x="-109.82" y="-44.06" width="12" length="23" angle="112.00"/>
        <space x="-109.60" y="-59.15" width="12" length="23" angle="112.00"/>
        <space x="-109.34" y="-73.95" width="12" length="23" angle="112.00"/>
        <space x="-109.65" y="-89.05" width="12" length="23" angle="112.00"/>
        <space x="-59.56" y="82.60" width="12" length="23" angle="68.00"/>
        <space x="-60.28" y="67.54" width="12" length="23" angle="68.00"/>
        <space x="-59.97" y="52.07" width="12" length="23" angle="68.00"/>
        <space x="-60.38" y="37.01" width="12" length="23" angle="68.00"/>
        <space x="-59.97" y="22.16" width="12" length="23" angle="68.00"/>
        <space x="-59.77" y="7.10" width="12" length="23" angle="68.00"/>
        <space x="-59.97" y="-7.34" width="12" length="23" angle="68.00"/>
        <space x="-60.18" y="-22.40" width="12" length="23" angle="68.00"/>
        <space x="-60.38" y="-37.46" width="12" length="23" angle="68.00"/>
        <space x="-60.19" y="-52.62" width="12" length="23" angle="68.00"/>
        <space x="-60.28" y="-67.06" width="12" length="23" angle="68.00"/>
        <space x="-60.65" y="-82.42" width="12" length="23" angle="68.00"/>
        <space x="-59.82" y="-98.07" width="12" length="23" angle="68.00"/>
    </parkingArea>
    <parkingArea id="pa_16" lane="E12_0" startPos="124.67" endPos="134.67">
        <space x="-27.59" y="90.76" width="12" length="23" angle="112.00"/>
        <space x="-27.76" y="75.72" width="12" length="23" angle="112.00"/>
        <space x="-27.61" y="60.81" width="12" length="23" angle="112.00"/>
        <space x="-27.19" y="45.63" width="12" length="23" angle="112.00"/>
        <space x="-27.29" y="30.81" width="12" length="23" angle="112.00"/>
        <space x="-27.45" y="15.89" width="12" length="23" angle="112.00"/>
        <space x="-27.71" y="0.70" width="12" length="23" angle="112.00"/>
        <space x="-27.47" y="-13.77" width="12" length="23" angle="112.00"/>
        <space x="-27.57" y="-28.86" width="12" length="23" angle="112.00"/>
        <space x="-27.66" y="-43.66" width="12" length="23" angle="112.00"/>
        <space x="-27.72" y="-58.81" width="12" length="23" angle="112.00"/>
        <space x="-27.67" y="-73.71" width="12" length="23" angle="112.00"/>
        <space x="-27.44" y="-88.84" width="12" length="23" angle="112.00"/>
        <space x="21.93" y="82.53" width="12" length="23" angle="68.00"/>
        <space x="22.31" y="66.88" width="12" length="23" angle="68.00"/>
        <space x="21.56" y="52.36" width="12" length="23" angle="68.00"/>
        <space x="21.56" y="36.81" width="12" length="23" angle="68.00"/>
        <space x="21.65" y="21.72" width="12" length="23" angle="68.00"/>
        <space x="21.65" y="7.19" width="12" length="23" angle="68.00"/>
        <space x="21.84" y="-6.96" width="12" length="23" angle="68.00"/>
        <space x="21.93" y="-22.23" width="12" length="23" angle="68.00"/>
        <space x="21.47" y="-37.13" width="12" length="23" angle="68.00"/>
        <space x="21.47" y="-51.84" width="12" length="23" angle="68.00"/>
        <space x="21.28" y="-67.21" width="12" length="23" angle="68.00"/>
        <space x="21.19" y="-82.39" width="12" length="23" angle="68.00"/>
        <space x="21.37" y="-97.19" width="12" length="23" angle="68.00"/>
    </parkingArea>
    <parkingArea id="pa_17" lane="E15_0" startPos="121.53" endPos="131.53">
        <space x="54.15" y="90.66" width="12" length="23" angle="112.00"/>
        <space x="53.78" y="75.30" width="12" length="23" angle="112.00"/>
        <space x="54.05" y="60.43" width="12" length="23" angle="112.00"/>
        <space x="53.62" y="45.88" width="12" length="23" angle="112.00"/>
        <space x="53.96" y="30.79" width="12" length="23" angle="112.00"/>
        <space x="53.97" y="15.90" width="12" length="23" angle="112.00"/>
        <space x="53.60" y="0.97" width="12" length="23" angle="112.00"/>
        <space x="54.12" y="-13.48" width="12" length="23" angle="112.00"/>
        <space x="53.81" y="-28.62" width="12" length="23" angle="112.00"/>
        <space x="53.62" y="-44.14" width="12" length="23" angle="112.00"/>
        <space x="53.68" y="-59.09" width="12" length="23" angle="112.00"/>
        <space x="53.87" y="-73.92" width="12" length="23" angle="112.00"/>
        <space x="54.06" y="-89.25" width="12" length="23" angle="112.00"/>
        <space x="104.09" y="82.53" width="12" length="23" angle="68.00"/>
        <space x="103.68" y="67.88" width="12" length="23" angle="68.00"/>
        <space x="103.27" y="52.62" width="12" length="23" angle="68.00"/>
        <space x="103.37" y="37.56" width="12" length="23" angle="68.00"/>
        <space x="103.78" y="22.60" width="12" length="23" angle="68.00"/>
        <space x="103.99" y="8.16" width="12" length="23" angle="68.00"/>
        <space x="103.47" y="-7.20" width="12" length="23" angle="68.00"/>
        <space x="103.06" y="-21.65" width="12" length="23" angle="68.00"/>
        <space x="103.27" y="-36.81" width="12" length="23" angle="68.00"/>
        <space x="103.58" y="-51.87" width="12" length="23" angle="68.00"/>
        <space x="103.88" y="-67.33" width="12" length="23" angle="68.00"/>
        <space x="103.47" y="-81.57" width="12" length="23" angle="68.00"/>
        <space x="103.17" y="-97.65" width="12" length="23" angle="68.00"/>
    </parkingArea>
    <parkingArea id="pa_2" lane="E13_0" startPos="34.74" endPos="44.74">
        <space x="-86.63" y="-170.66" width="12" length="23"/>
        <space x="-71.84" y="-170.43" width="12" length="23"/>
        <space x="-57.31" y="-170.74" width="12" length="23"/>
        <space x="-42.74" y="-170.55" width="12" length="23"/>
        <space x="-27.22" y="-170.62" width="12" length="23"/>
        <space x="-11.89" y="-170.62" width="12" length="23"/>
    </parkingArea>
    <parkingArea id="pa_3" lane="E10_0" startPos="37.33" endPos="47.33">
        <space x="-176.05" y="-170.80" width="12" length="23"/>
        <space x="-161.35" y="-170.73" width="12" length="23"/>
        <space x="-146.58" y="-170.87" width="12" length="23"/>
        <space x="-131.59" y="-170.60" width="12" length="23"/>
        <space x="-117.24" y="-170.46" width="12" length="23"/>
        <space x="-102.11" y="-170.60" width="12" length="23"/>
    </parkingArea>
    <parkingArea id="pa_4" lane="E16_0" startPos="35.44" endPos="45.44">
        <space x="2.88" y="-170.55" width="12" length="23"/>
        <space x="18.02" y="-170.62" width="12" length="23"/>
        <space x="32.52" y="-170.74" width="12" length="23"/>
        <space x="49.88" y="-170.81" width="17" length="23"/>
        <space x="70.16" y="-170.55" width="17" length="23"/>
    </parkingArea>
    <parkingArea id="pa_5" lane="E19_0" startPos="46.02" endPos="56.02">
        <space x="89.74" y="-170.53" width="17" length="23"/>
        <space x="109.95" y="-170.47" width="17" length="23"/>
        <space x="129.75" y="-170.60" width="17" length="23"/>
        <space x="149.12" y="-170.47" width="17" length="23"/>
        <space x="169.05" y="-170.60" width="17" length="23"/>
        <space x="188.98" y="-170.47" width="17" length="23"/>
    </parkingArea>
    <parkingArea id="pa_6" lane="E2_0" startPos="29.92" endPos="39.92">
        <space x="-329.55" y="139.23" width="12" length="23"/>
        <space x="-315.32" y="139.18" width="12" length="23"/>
        <space x="-299.94" y="139.41" width="12" length="23"/>
        <space x="-285.89" y="139.12" width="12" length="23"/>
        <space x="-270.57" y="139.23" width="12" length="23"/>
        <space x="-255.37" y="139.29" width="12" length="23"/>
    </parkingArea>
    <parkingArea id="pa_7" lane="E18_0" startPos="137.80" endPos="147.80">
        <space x="191.52" y="-105.06" width="12" length="25"/>
        <space x="191.44" y="-74.88" width="12" length="25"/>
        <space x="191.19" y="-44.44" width="12" length="25"/>
        <space x="191.19" y="-14.92" width="12" length="25"/>
        <space x="191.61" y="14.42" width="12" length="25"/>
        <space x="191.10" y="44.36" width="12" length="25"/>
        <space x="136.10" y="90.57" width="12" length="23" angle="112.00"/>
        <space x="136.10" y="75.49" width="12" length="23" angle="112.00"/>
        <space x="135.97" y="60.73" width="12" length="23" angle="112.00"/>
        <space x="135.85" y="45.46" width="12" length="23" angle="112.00"/>
        <space x="135.91" y="30.45" width="12" length="23" angle="112.00"/>
        <space x="135.77" y="15.94" width="12" length="23" angle="112.00"/>
        <space x="135.60" y="1.51" width="12" length="23" angle="112.00"/>
        <space x="135.79" y="-13.67" width="12" length="23" angle="112.00"/>
        <space x="135.79" y="-28.57" width="12" length="23" angle="112.00"/>
        <space x="135.65" y="-43.95" width="12" length="23" angle="112.00"/>
        <space x="135.60" y="-58.70" width="12" length="23" angle="112.00"/>
        <space x="135.69" y="-73.70" width="12" length="23" angle="112.00"/>
        <space x="135.60" y="-89.02" width="12" length="23" angle="112.00"/>
    </parkingArea>
    <parkingArea id="pa_8" lane="E5_0" startPos="41.22" endPos="51.22">
        <space x="-241.14" y="139.29" width="12" length="23"/>
        <space x="-226.63" y="139.29" width="12" length="23"/>
        <space x="-211.54" y="139.35" width="12" length="23"/>
        <space x="-196.33" y="139.29" width="12" length="23"/>
        <space x="-181.59" y="139.12" width="12" length="23"/>
    </parkingArea>
    <parkingArea id="pa_9" lane="E8_0" startPos="37.92" endPos="47.92">
        <space x="-166.21" y="139.23" width="12" length="23"/>
        <space x="-151.12" y="139.35" width="12" length="23"/>
        <space x="-136.38" y="139.23" width="12" length="23"/>
        <space x="-121.81" y="139.52" width="12" length="23"/>
        <space x="-107.41" y="139.35" width="12" length="23"/>
        <space x="-91.74" y="139.41" width="12" length="23"/>
    </parkingArea>
</additional>
