<?xml version="1.0" encoding="UTF-8"?>

<!-- generated on 2025-05-20 15:15:43 by Eclipse SUMO netedit Version 1.23.1
<neteditConfiguration xmlns:xsi="http://www.w3.org/2001/XMLSchema-instance" xsi:noNamespaceSchemaLocation="http://sumo.dlr.de/xsd/neteditConfiguration.xsd">

    <input>
        <sumocfg-file value="C:\Users\maja\Desktop\route1.sumocfg"/>
        <route-files value="C:\Users\maja\Desktop\route1.rou.xml"/>
        <sumo-net-file value="C:\Users\maja\Desktop\route1.net.xml"/>
    </input>

    <output>
        <output-file value="C:\Users\maja\Desktop\route1.net.xml"/>
    </output>

    <processing>
        <offset.disable-normalization value="true"/>
    </processing>

    <junctions>
        <no-turnarounds value="true"/>
    </junctions>

    <netedit>
        <new-network value="false"/>
    </netedit>

</neteditConfiguration>
-->

<net version="1.20" junctionCornerDetail="5" limitTurnSpeed="5.50" xmlns:xsi="http://www.w3.org/2001/XMLSchema-instance" xsi:noNamespaceSchemaLocation="http://sumo.dlr.de/xsd/net_file.xsd">

    <location netOffset="0.00,0.00" convBoundary="-95.38,-166.00,139.17,37.62" origBoundary="10000000000.00,10000000000.00,-10000000000.00,-10000000000.00" projParameter="!"/>

    <edge id=":1_0" function="internal">
        <lane id=":1_0_0" index="0" speed="3.65" length="4.67" shape="121.94,-150.27 122.67,-149.03 122.69,-148.14 121.98,-147.59 120.55,-147.39"/>
    </edge>
    <edge id=":J101_0" function="internal">
        <lane id=":J101_0_0" index="0" speed="3.65" length="4.67" shape="-37.61,9.59 -36.79,10.78 -36.72,11.67 -37.38,12.26 -38.80,12.56"/>
    </edge>
    <edge id=":J102_0" function="internal">
        <lane id=":J102_0_0" index="0" speed="8.62" length="7.90" shape="-42.99,-0.38 -45.54,-2.02 -47.35,-3.98 -48.28,-5.97"/>
    </edge>
    <edge id=":J102_1" function="internal">
        <lane id=":J102_1_0" index="0" speed="3.65" length="4.67" shape="-42.99,-0.38 -43.70,-1.64 -43.70,-2.53 -42.98,-3.07 -41.55,-3.24"/>
    </edge>
    <edge id=":J102_7" function="internal">
        <lane id=":J102_7_0" index="0" speed="8.62" length="2.96" shape="-48.28,-5.97 -48.42,-6.27 -48.76,-8.88"/>
    </edge>
    <edge id=":J102_2" function="internal">
        <lane id=":J102_2_0" index="0" speed="7.90" length="9.92" shape="-55.93,-2.76 -52.81,-4.14 -50.57,-5.62 -49.22,-7.20 -48.76,-8.88"/>
    </edge>
    <edge id=":J102_3" function="internal">
        <lane id=":J102_3_0" index="0" speed="3.65" length="4.67" shape="-55.93,-2.76 -54.53,-2.43 -53.87,-1.82 -53.97,-0.93 -54.81,0.24"/>
    </edge>
    <edge id=":J102_4" function="internal">
        <lane id=":J102_4_0" index="0" speed="5.40" length="7.58" shape="-48.94,2.05 -49.28,0.43 -50.37,-0.42 -52.21,-0.48 -54.81,0.24"/>
    </edge>
    <edge id=":J102_5" function="internal">
        <lane id=":J102_5_0" index="0" speed="13.89" length="10.94" shape="-48.94,2.05 -48.76,-8.88"/>
    </edge>
    <edge id=":J102_6" function="internal">
        <lane id=":J102_6_0" index="0" speed="6.46" length="11.92" shape="-48.94,2.05 -48.41,-1.62 -47.00,-3.73 -44.72,-4.27 -41.55,-3.24"/>
    </edge>
    <edge id=":J103_0" function="internal">
        <lane id=":J103_0_0" index="0" speed="3.65" length="4.67" shape="-55.30,0.42 -56.71,0.09 -57.36,-0.52 -57.26,-1.41 -56.42,-2.58"/>
    </edge>
    <edge id=":J104_0" function="internal">
        <lane id=":J104_0_0" index="0" speed="3.65" length="4.67" shape="-36.89,-0.90 -36.17,0.36 -36.18,1.25 -36.89,1.79 -38.32,1.96"/>
    </edge>
    <edge id=":J105_0" function="internal">
        <lane id=":J105_0_0" index="0" speed="8.31" length="7.78" shape="-42.82,-11.25 -45.39,-12.64 -47.23,-14.46 -48.25,-16.49"/>
    </edge>
    <edge id=":J105_1" function="internal">
        <lane id=":J105_1_0" index="0" speed="3.65" length="4.67" shape="-42.82,-11.25 -43.64,-12.44 -43.72,-13.33 -43.05,-13.93 -41.64,-14.23"/>
    </edge>
    <edge id=":J105_7" function="internal">
        <lane id=":J105_7_0" index="0" speed="8.31" length="2.96" shape="-48.25,-16.49 -48.36,-16.71 -48.77,-19.39"/>
    </edge>
    <edge id=":J105_2" function="internal">
        <lane id=":J105_2_0" index="0" speed="7.71" length="9.81" shape="-55.73,-13.27 -52.66,-14.60 -50.48,-16.06 -49.18,-17.66 -48.77,-19.39"/>
    </edge>
    <edge id=":J105_3" function="internal">
        <lane id=":J105_3_0" index="0" speed="3.65" length="4.67" shape="-55.73,-13.27 -54.33,-12.92 -53.69,-12.31 -53.79,-11.42 -54.65,-10.26"/>
    </edge>
    <edge id=":J105_4" function="internal">
        <lane id=":J105_4_0" index="0" speed="5.30" length="7.17" shape="-48.76,-9.08 -49.11,-10.40 -50.21,-11.03 -52.06,-10.99 -54.65,-10.26"/>
    </edge>
    <edge id=":J105_5" function="internal">
        <lane id=":J105_5_0" index="0" speed="13.89" length="10.31" shape="-48.76,-9.08 -48.77,-19.39"/>
    </edge>
    <edge id=":J105_6" function="internal">
        <lane id=":J105_6_0" index="0" speed="6.41" length="11.17" shape="-48.76,-9.08 -48.28,-12.38 -46.93,-14.34 -44.72,-14.96 -41.64,-14.23"/>
    </edge>
    <edge id=":J106_0" function="internal">
        <lane id=":J106_0_0" index="0" speed="3.65" length="4.67" shape="-55.50,-9.95 -56.90,-10.30 -57.55,-10.92 -57.44,-11.80 -56.58,-12.96"/>
    </edge>
    <edge id=":J107_0" function="internal">
        <lane id=":J107_0_0" index="0" speed="3.65" length="4.67" shape="-36.47,-12.17 -35.66,-10.98 -35.58,-10.09 -36.25,-9.49 -37.66,-9.20"/>
    </edge>
    <edge id=":J108_0" function="internal">
        <lane id=":J108_0_0" index="0" speed="5.34" length="7.32" shape="-48.77,-19.59 -49.16,-21.02 -50.28,-21.70 -52.13,-21.64 -54.70,-20.85"/>
    </edge>
    <edge id=":J108_1" function="internal">
        <lane id=":J108_1_0" index="0" speed="13.89" length="10.69" shape="-48.77,-19.59 -48.63,-30.28"/>
    </edge>
    <edge id=":J108_2" function="internal">
        <lane id=":J108_2_0" index="0" speed="6.40" length="11.52" shape="-48.77,-19.59 -48.38,-23.06 -47.06,-25.09 -44.81,-25.69 -41.64,-24.85"/>
    </edge>
    <edge id=":J108_3" function="internal">
        <lane id=":J108_3_0" index="0" speed="8.19" length="7.82" shape="-42.90,-21.91 -45.52,-23.40 -47.35,-25.29 -48.25,-27.28"/>
    </edge>
    <edge id=":J108_4" function="internal">
        <lane id=":J108_4_0" index="0" speed="3.65" length="4.67" shape="-42.90,-21.91 -43.69,-23.12 -43.75,-24.01 -43.06,-24.59 -41.64,-24.85"/>
    </edge>
    <edge id=":J108_7" function="internal">
        <lane id=":J108_7_0" index="0" speed="8.19" length="3.04" shape="-48.25,-27.28 -48.38,-27.58 -48.63,-30.28"/>
    </edge>
    <edge id=":J108_5" function="internal">
        <lane id=":J108_5_0" index="0" speed="8.24" length="10.17" shape="-55.88,-23.82 -52.78,-25.28 -50.54,-26.84 -49.15,-28.50 -48.63,-30.28"/>
    </edge>
    <edge id=":J108_6" function="internal">
        <lane id=":J108_6_0" index="0" speed="3.65" length="4.67" shape="-55.88,-23.82 -54.47,-23.52 -53.80,-22.93 -53.88,-22.03 -54.70,-20.85"/>
    </edge>
    <edge id=":J109_0" function="internal">
        <lane id=":J109_0_0" index="0" speed="3.65" length="4.67" shape="-54.79,-20.81 -56.20,-21.11 -56.87,-21.71 -56.79,-22.60 -55.97,-23.79"/>
    </edge>
    <edge id=":J110_0" function="internal">
        <lane id=":J110_0_0" index="0" speed="3.65" length="4.67" shape="-37.87,-23.23 -37.08,-22.02 -37.03,-21.13 -37.71,-20.55 -39.13,-20.29"/>
    </edge>
    <edge id=":J111_0" function="internal">
        <lane id=":J111_0_0" index="0" speed="8.10" length="7.77" shape="-42.59,-32.87 -45.11,-34.29 -46.84,-36.22 -47.67,-38.35"/>
    </edge>
    <edge id=":J111_1" function="internal">
        <lane id=":J111_1_0" index="0" speed="3.65" length="4.67" shape="-42.59,-32.87 -43.41,-34.06 -43.49,-34.95 -42.82,-35.55 -41.41,-35.85"/>
    </edge>
    <edge id=":J111_7" function="internal">
        <lane id=":J111_7_0" index="0" speed="8.10" length="3.33" shape="-47.67,-38.35 -47.80,-38.68 -47.97,-41.65"/>
    </edge>
    <edge id=":J111_2" function="internal">
        <lane id=":J111_2_0" index="0" speed="8.03" length="10.27" shape="-55.26,-35.26 -52.18,-36.48 -49.94,-37.95 -48.53,-39.67 -47.97,-41.65"/>
    </edge>
    <edge id=":J111_3" function="internal">
        <lane id=":J111_3_0" index="0" speed="3.65" length="4.67" shape="-55.26,-35.26 -53.88,-34.86 -53.26,-34.21 -53.40,-33.33 -54.31,-32.21"/>
    </edge>
    <edge id=":J111_4" function="internal">
        <lane id=":J111_4_0" index="0" speed="5.31" length="7.19" shape="-48.62,-30.48 -48.91,-31.92 -49.96,-32.69 -51.76,-32.78 -54.31,-32.21"/>
    </edge>
    <edge id=":J111_5" function="internal">
        <lane id=":J111_5_0" index="0" speed="13.89" length="11.19" shape="-48.62,-30.48 -47.97,-41.65"/>
    </edge>
    <edge id=":J111_6" function="internal">
        <lane id=":J111_6_0" index="0" speed="6.50" length="11.26" shape="-48.62,-30.48 -48.02,-33.84 -46.62,-35.86 -44.42,-36.53 -41.41,-35.85"/>
    </edge>
    <edge id=":J112_0" function="internal">
        <lane id=":J112_0_0" index="0" speed="3.65" length="4.67" shape="-54.45,-32.16 -55.84,-32.57 -56.46,-33.22 -56.31,-34.10 -55.40,-35.22"/>
    </edge>
    <edge id=":J113_0" function="internal">
        <lane id=":J113_0_0" index="0" speed="3.65" length="4.67" shape="-36.54,-33.91 -35.72,-32.72 -35.64,-31.83 -36.31,-31.24 -37.72,-30.94"/>
    </edge>
    <edge id=":J114_0" function="internal">
        <lane id=":J114_0_0" index="0" speed="8.89" length="8.01" shape="-41.85,-44.64 -44.32,-46.34 -46.07,-48.46 -46.92,-50.56"/>
    </edge>
    <edge id=":J114_1" function="internal">
        <lane id=":J114_1_0" index="0" speed="3.65" length="4.67" shape="-41.85,-44.64 -42.54,-45.91 -42.52,-46.80 -41.79,-47.32 -40.35,-47.46"/>
    </edge>
    <edge id=":J114_7" function="internal">
        <lane id=":J114_7_0" index="0" speed="8.89" length="3.41" shape="-46.92,-50.56 -47.09,-50.99 -47.39,-53.92"/>
    </edge>
    <edge id=":J114_2" function="internal">
        <lane id=":J114_2_0" index="0" speed="8.19" length="10.71" shape="-54.82,-47.05 -51.60,-48.48 -49.29,-50.10 -47.89,-51.92 -47.39,-53.92"/>
    </edge>
    <edge id=":J114_3" function="internal">
        <lane id=":J114_3_0" index="0" speed="3.65" length="4.67" shape="-54.82,-47.05 -53.42,-46.71 -52.77,-46.09 -52.87,-45.20 -53.73,-44.04"/>
    </edge>
    <edge id=":J114_4" function="internal">
        <lane id=":J114_4_0" index="0" speed="5.41" length="7.79" shape="-47.96,-41.85 -48.21,-43.64 -49.25,-44.60 -51.09,-44.73 -53.73,-44.04"/>
    </edge>
    <edge id=":J114_5" function="internal">
        <lane id=":J114_5_0" index="0" speed="13.89" length="12.09" shape="-47.96,-41.85 -47.39,-53.92"/>
    </edge>
    <edge id=":J114_6" function="internal">
        <lane id=":J114_6_0" index="0" speed="6.58" length="12.22" shape="-47.96,-41.85 -47.25,-45.69 -45.74,-47.91 -43.44,-48.50 -40.35,-47.46"/>
    </edge>
    <edge id=":J115_0" function="internal">
        <lane id=":J115_0_0" index="0" speed="3.65" length="4.67" shape="-53.88,-43.98 -55.28,-44.33 -55.93,-44.94 -55.83,-45.83 -54.98,-46.99"/>
    </edge>
    <edge id=":J116_0" function="internal">
        <lane id=":J116_0_0" index="0" speed="3.65" length="4.67" shape="-36.68,-45.52 -35.99,-44.25 -36.01,-43.36 -36.74,-42.84 -38.17,-42.69"/>
    </edge>
    <edge id=":J117_0" function="internal">
        <lane id=":J117_0_0" index="0" speed="9.57" length="8.70" shape="-41.44,-56.76 -43.98,-58.59 -45.78,-61.12 -46.54,-63.45"/>
    </edge>
    <edge id=":J117_1" function="internal">
        <lane id=":J117_1_0" index="0" speed="3.65" length="4.67" shape="-41.44,-56.76 -42.15,-58.01 -42.14,-58.91 -41.42,-59.44 -39.99,-59.61"/>
    </edge>
    <edge id=":J117_7" function="internal">
        <lane id=":J117_7_0" index="0" speed="9.57" length="4.88" shape="-46.54,-63.45 -46.83,-64.34 -47.14,-68.27"/>
    </edge>
    <edge id=":J117_2" function="internal">
        <lane id=":J117_2_0" index="0" speed="9.06" length="12.75" shape="-54.48,-58.79 -51.31,-60.50 -49.02,-62.65 -47.63,-65.24 -47.14,-68.27"/>
    </edge>
    <edge id=":J117_3" function="internal">
        <lane id=":J117_3_0" index="0" speed="3.65" length="4.67" shape="-54.48,-58.79 -53.07,-58.51 -52.39,-57.92 -52.46,-57.03 -53.26,-55.83"/>
    </edge>
    <edge id=":J117_4" function="internal">
        <lane id=":J117_4_0" index="0" speed="5.37" length="7.65" shape="-47.39,-54.12 -47.72,-55.79 -48.82,-56.63 -50.66,-56.64 -53.26,-55.83"/>
    </edge>
    <edge id=":J117_5" function="internal">
        <lane id=":J117_5_0" index="0" speed="13.89" length="14.15" shape="-47.39,-54.12 -47.14,-68.27"/>
    </edge>
    <edge id=":J117_6" function="internal">
        <lane id=":J117_6_0" index="0" speed="6.50" length="12.09" shape="-47.39,-54.12 -46.86,-57.90 -45.45,-60.07 -43.16,-60.64 -39.99,-59.61"/>
    </edge>
    <edge id=":J118_0" function="internal">
        <lane id=":J118_0_0" index="0" speed="3.65" length="4.67" shape="-53.46,-55.75 -54.88,-56.03 -55.55,-56.62 -55.49,-57.51 -54.68,-58.71"/>
    </edge>
    <edge id=":J119_0" function="internal">
        <lane id=":J119_0_0" index="0" speed="3.65" length="4.67" shape="-35.99,-57.58 -35.28,-56.33 -35.28,-55.43 -36.00,-54.90 -37.43,-54.73"/>
    </edge>
    <edge id=":J120_0" function="internal">
        <lane id=":J120_0_0" index="0" speed="10.07" length="8.58" shape="-41.28,-73.83 -43.76,-76.16 -45.48,-78.75 -46.13,-80.71"/>
    </edge>
    <edge id=":J120_1" function="internal">
        <lane id=":J120_1_0" index="0" speed="3.65" length="4.67" shape="-41.28,-73.83 -41.74,-75.20 -41.57,-76.08 -40.77,-76.47 -39.33,-76.37"/>
    </edge>
    <edge id=":J120_7" function="internal">
        <lane id=":J120_7_0" index="0" speed="10.07" length="4.06" shape="-46.13,-80.71 -46.43,-81.61 -46.61,-84.72"/>
    </edge>
    <edge id=":J120_2" function="internal">
        <lane id=":J120_2_0" index="0" speed="9.55" length="11.90" shape="-54.11,-76.10 -50.94,-78.09 -48.63,-80.19 -47.19,-82.40 -46.61,-84.72"/>
    </edge>
    <edge id=":J120_3" function="internal">
        <lane id=":J120_3_0" index="0" speed="3.65" length="4.67" shape="-54.11,-76.10 -52.68,-75.96 -51.95,-75.44 -51.92,-74.55 -52.60,-73.28"/>
    </edge>
    <edge id=":J120_4" function="internal">
        <lane id=":J120_4_0" index="0" speed="5.62" length="8.97" shape="-47.11,-69.56 -47.42,-72.31 -48.43,-73.85 -50.16,-74.17 -52.60,-73.28"/>
    </edge>
    <edge id=":J120_5" function="internal">
        <lane id=":J120_5_0" index="0" speed="13.89" length="15.17" shape="-47.11,-69.56 -46.61,-84.72"/>
    </edge>
    <edge id=":J120_6" function="internal">
        <lane id=":J120_6_0" index="0" speed="6.76" length="14.64" shape="-47.11,-69.56 -46.55,-74.72 -45.07,-77.58 -42.66,-78.13 -39.33,-76.37"/>
    </edge>
    <edge id=":J121_0" function="internal">
        <lane id=":J121_0_0" index="0" speed="3.65" length="4.67" shape="-52.93,-73.10 -54.37,-73.23 -55.10,-73.75 -55.12,-74.64 -54.44,-75.92"/>
    </edge>
    <edge id=":J122_0" function="internal">
        <lane id=":J122_0_0" index="0" speed="3.65" length="4.67" shape="-34.90,-72.97 -34.44,-71.61 -34.61,-70.73 -35.41,-70.34 -36.85,-70.43"/>
    </edge>
    <edge id=":J123_0" function="internal">
        <lane id=":J123_0_0" index="0" speed="9.84" length="8.17" shape="-40.52,-88.07 -42.97,-90.05 -44.74,-92.38 -45.53,-94.33"/>
    </edge>
    <edge id=":J123_1" function="internal">
        <lane id=":J123_1_0" index="0" speed="3.65" length="4.67" shape="-40.52,-88.07 -41.10,-89.39 -41.00,-90.28 -40.23,-90.74 -38.79,-90.76"/>
    </edge>
    <edge id=":J123_7" function="internal">
        <lane id=":J123_7_0" index="0" speed="9.84" length="3.86" shape="-45.53,-94.33 -45.83,-95.07 -46.23,-98.10"/>
    </edge>
    <edge id=":J123_2" function="internal">
        <lane id=":J123_2_0" index="0" speed="9.48" length="12.48" shape="-53.95,-88.96 -50.54,-91.23 -48.12,-93.50 -46.68,-95.80 -46.23,-98.10"/>
    </edge>
    <edge id=":J123_3" function="internal">
        <lane id=":J123_3_0" index="0" speed="3.65" length="4.67" shape="-53.95,-88.96 -52.51,-88.87 -51.76,-88.38 -51.71,-87.48 -52.35,-86.19"/>
    </edge>
    <edge id=":J123_4" function="internal">
        <lane id=":J123_4_0" index="0" speed="5.25" length="7.96" shape="-46.60,-84.92 -46.85,-86.79 -47.89,-87.62 -49.72,-87.42 -52.35,-86.19"/>
    </edge>
    <edge id=":J123_5" function="internal">
        <lane id=":J123_5_0" index="0" speed="13.89" length="13.19" shape="-46.60,-84.92 -46.23,-98.10"/>
    </edge>
    <edge id=":J123_6" function="internal">
        <lane id=":J123_6_0" index="0" speed="6.63" length="13.09" shape="-46.60,-84.92 -45.87,-89.21 -44.32,-91.61 -41.96,-92.13 -38.79,-90.76"/>
    </edge>
    <edge id=":J124_0" function="internal">
        <lane id=":J124_0_0" index="0" speed="3.65" length="4.67" shape="-52.91,-85.87 -54.35,-85.96 -55.10,-86.45 -55.15,-87.34 -54.51,-88.64"/>
    </edge>
    <edge id=":J125_0" function="internal">
        <lane id=":J125_0_0" index="0" speed="3.65" length="4.67" shape="-33.87,-87.58 -33.30,-86.26 -33.40,-85.37 -34.17,-84.91 -35.61,-84.89"/>
    </edge>
    <edge id=":J126_0" function="internal">
        <lane id=":J126_0_0" index="0" speed="5.27" length="7.83" shape="-46.23,-98.30 -46.63,-100.06 -47.74,-100.81 -49.56,-100.53 -52.10,-99.24"/>
    </edge>
    <edge id=":J126_1" function="internal">
        <lane id=":J126_1_0" index="0" speed="13.89" length="12.83" shape="-46.23,-98.30 -46.24,-111.13"/>
    </edge>
    <edge id=":J126_2" function="internal">
        <lane id=":J126_2_0" index="0" speed="6.47" length="13.08" shape="-46.23,-98.30 -45.83,-102.54 -44.44,-104.82 -42.06,-105.14 -38.69,-103.50"/>
    </edge>
    <edge id=":J126_3" function="internal">
        <lane id=":J126_3_0" index="0" speed="9.82" length="8.42" shape="-40.48,-100.85 -43.06,-102.99 -44.87,-105.42 -45.62,-107.33"/>
    </edge>
    <edge id=":J126_4" function="internal">
        <lane id=":J126_4_0" index="0" speed="3.65" length="4.67" shape="-40.48,-100.85 -41.03,-102.19 -40.91,-103.08 -40.13,-103.51 -38.69,-103.50"/>
    </edge>
    <edge id=":J126_7" function="internal">
        <lane id=":J126_7_0" index="0" speed="9.82" length="3.88" shape="-45.62,-107.33 -45.94,-108.14 -46.24,-111.13"/>
    </edge>
    <edge id=":J126_5" function="internal">
        <lane id=":J126_5_0" index="0" speed="9.86" length="12.32" shape="-53.79,-101.96 -50.53,-104.27 -48.18,-106.57 -46.75,-108.86 -46.24,-111.13"/>
    </edge>
    <edge id=":J126_6" function="internal">
        <lane id=":J126_6_0" index="0" speed="3.65" length="4.67" shape="-53.79,-101.96 -52.35,-101.91 -51.59,-101.44 -51.51,-100.55 -52.10,-99.24"/>
    </edge>
    <edge id=":J127_0" function="internal">
        <lane id=":J127_0_0" index="0" speed="3.65" length="4.67" shape="-52.75,-98.84 -54.19,-98.88 -54.95,-99.35 -55.04,-100.24 -54.44,-101.56"/>
    </edge>
    <edge id=":J128_0" function="internal">
        <lane id=":J128_0_0" index="0" speed="3.65" length="4.67" shape="-32.77,-99.49 -32.22,-98.16 -32.34,-97.27 -33.12,-96.83 -34.56,-96.84"/>
    </edge>
    <edge id=":J129_0" function="internal">
        <lane id=":J129_0_0" index="0" speed="9.53" length="8.14" shape="-40.37,-114.17 -42.86,-116.35 -44.58,-118.75 -45.22,-120.51"/>
    </edge>
    <edge id=":J129_1" function="internal">
        <lane id=":J129_1_0" index="0" speed="3.65" length="4.67" shape="-40.37,-114.17 -40.88,-115.52 -40.74,-116.40 -39.94,-116.82 -38.50,-116.77"/>
    </edge>
    <edge id=":J129_7" function="internal">
        <lane id=":J129_7_0" index="0" speed="9.53" length="3.76" shape="-45.22,-120.51 -45.53,-121.37 -45.70,-124.21"/>
    </edge>
    <edge id=":J129_2" function="internal">
        <lane id=":J129_2_0" index="0" speed="10.66" length="12.82" shape="-53.80,-114.72 -50.37,-117.28 -47.88,-119.72 -46.32,-122.03 -45.70,-124.21"/>
    </edge>
    <edge id=":J129_3" function="internal">
        <lane id=":J129_3_0" index="0" speed="3.65" length="4.67" shape="-53.80,-114.72 -52.36,-114.73 -51.58,-114.29 -51.47,-113.40 -52.01,-112.07"/>
    </edge>
    <edge id=":J129_4" function="internal">
        <lane id=":J129_4_0" index="0" speed="5.20" length="7.92" shape="-46.24,-111.33 -46.56,-113.14 -47.63,-113.86 -49.45,-113.51 -52.01,-112.07"/>
    </edge>
    <edge id=":J129_5" function="internal">
        <lane id=":J129_5_0" index="0" speed="13.89" length="12.89" shape="-46.24,-111.33 -45.70,-124.21"/>
    </edge>
    <edge id=":J129_6" function="internal">
        <lane id=":J129_6_0" index="0" speed="6.54" length="13.34" shape="-46.24,-111.33 -45.66,-115.73 -44.18,-118.10 -41.80,-118.45 -38.50,-116.77"/>
    </edge>
    <edge id=":J130_0" function="internal">
        <lane id=":J130_0_0" index="0" speed="3.65" length="4.67" shape="-52.52,-111.73 -53.96,-111.72 -54.74,-112.16 -54.86,-113.05 -54.31,-114.38"/>
    </edge>
    <edge id=":J131_0" function="internal">
        <lane id=":J131_0_0" index="0" speed="3.65" length="4.67" shape="-33.15,-112.92 -32.64,-111.57 -32.79,-110.69 -33.58,-110.27 -35.02,-110.32"/>
    </edge>
    <edge id=":J132_0" function="internal">
        <lane id=":J132_0_0" index="0" speed="10.96" length="7.97" shape="-39.74,-127.06 -42.09,-129.40 -43.80,-131.75 -44.53,-133.33"/>
    </edge>
    <edge id=":J132_1" function="internal">
        <lane id=":J132_1_0" index="0" speed="3.65" length="4.67" shape="-39.74,-127.06 -40.11,-128.45 -39.88,-129.31 -39.05,-129.65 -37.62,-129.46"/>
    </edge>
    <edge id=":J132_7" function="internal">
        <lane id=":J132_7_0" index="0" speed="10.96" length="3.23" shape="-44.53,-133.33 -44.89,-134.09 -45.33,-136.44"/>
    </edge>
    <edge id=":J132_2" function="internal">
        <lane id=":J132_2_0" index="0" speed="9.91" length="12.42" shape="-53.27,-127.28 -49.73,-130.10 -47.23,-132.57 -45.76,-134.68 -45.33,-136.44"/>
    </edge>
    <edge id=":J132_3" function="internal">
        <lane id=":J132_3_0" index="0" speed="3.65" length="4.67" shape="-53.27,-127.28 -51.83,-127.35 -51.03,-126.95 -50.87,-126.06 -51.36,-124.71"/>
    </edge>
    <edge id=":J132_4" function="internal">
        <lane id=":J132_4_0" index="0" speed="5.12" length="7.99" shape="-45.69,-124.41 -45.92,-126.21 -46.94,-126.86 -48.76,-126.36 -51.36,-124.71"/>
    </edge>
    <edge id=":J132_5" function="internal">
        <lane id=":J132_5_0" index="0" speed="13.89" length="12.05" shape="-45.69,-124.41 -45.45,-127.70 -45.27,-130.43 -45.22,-133.16 -45.33,-136.44"/>
    </edge>
    <edge id=":J132_6" function="internal">
        <lane id=":J132_6_0" index="0" speed="6.57" length="13.80" shape="-45.69,-124.41 -44.88,-129.01 -43.27,-131.39 -40.85,-131.53 -37.62,-129.46"/>
    </edge>
    <edge id=":J133_0" function="internal">
        <lane id=":J133_0_0" index="0" speed="3.65" length="4.67" shape="-52.40,-123.94 -53.84,-123.87 -54.64,-124.27 -54.80,-125.15 -54.31,-126.51"/>
    </edge>
    <edge id=":J134_0" function="internal">
        <lane id=":J134_0_0" index="0" speed="3.65" length="4.67" shape="-34.10,-126.37 -33.73,-124.97 -33.96,-124.11 -34.79,-123.77 -36.21,-123.96"/>
    </edge>
    <edge id=":J135_0" function="internal">
        <lane id=":J135_0_0" index="0" speed="5.06" length="6.55" shape="-45.34,-136.64 -45.75,-137.32 -46.87,-137.42 -48.69,-136.92 -51.22,-135.84"/>
    </edge>
    <edge id=":J135_1" function="internal">
        <lane id=":J135_1_0" index="0" speed="13.89" length="9.27" shape="-45.34,-136.64 -45.48,-139.39 -45.50,-141.27 -45.40,-143.16 -45.16,-145.90"/>
    </edge>
    <edge id=":J135_2" function="internal">
        <lane id=":J135_2_0" index="0" speed="6.19" length="10.21" shape="-45.34,-136.64 -45.06,-139.40 -43.84,-141.07 -41.68,-141.63 -38.58,-141.11"/>
    </edge>
    <edge id=":J135_3" function="internal">
        <lane id=":J135_3_0" index="0" speed="7.56" length="7.47" shape="-39.51,-138.04 -42.18,-139.23 -44.02,-140.94 -44.84,-142.80"/>
    </edge>
    <edge id=":J135_4" function="internal">
        <lane id=":J135_4_0" index="0" speed="3.65" length="4.67" shape="-39.51,-138.04 -40.42,-139.15 -40.58,-140.04 -39.96,-140.69 -38.58,-141.11"/>
    </edge>
    <edge id=":J135_7" function="internal">
        <lane id=":J135_7_0" index="0" speed="7.56" length="3.14" shape="-44.84,-142.80 -45.01,-143.16 -45.16,-145.90"/>
    </edge>
    <edge id=":J135_5" function="internal">
        <lane id=":J135_5_0" index="0" speed="8.99" length="10.73" shape="-52.60,-138.72 -49.47,-140.44 -47.19,-142.21 -45.75,-144.03 -45.16,-145.90"/>
    </edge>
    <edge id=":J135_6" function="internal">
        <lane id=":J135_6_0" index="0" speed="3.65" length="4.67" shape="-52.60,-138.72 -51.17,-138.52 -50.46,-137.97 -50.48,-137.08 -51.22,-135.84"/>
    </edge>
    <edge id=":J136_0" function="internal">
        <lane id=":J136_0_0" index="0" speed="3.65" length="4.67" shape="-52.78,-135.09 -54.21,-135.29 -54.92,-135.84 -54.90,-136.73 -54.16,-137.97"/>
    </edge>
    <edge id=":J137_0" function="internal">
        <lane id=":J137_0_0" index="0" speed="3.65" length="4.67" shape="-32.85,-139.37 -31.93,-138.26 -31.78,-137.38 -32.39,-136.73 -33.77,-136.31"/>
    </edge>
    <edge id=":J138_0" function="internal">
        <lane id=":J138_0_0" index="0" speed="8.83" length="7.33" shape="-38.93,-149.55 -41.33,-151.49 -43.01,-153.50 -43.69,-154.98"/>
    </edge>
    <edge id=":J138_1" function="internal">
        <lane id=":J138_1_0" index="0" speed="3.65" length="4.67" shape="-38.93,-149.55 -39.46,-150.89 -39.33,-151.77 -38.54,-152.20 -37.10,-152.17"/>
    </edge>
    <edge id=":J138_7" function="internal">
        <lane id=":J138_7_0" index="0" speed="8.83" length="2.77" shape="-43.69,-154.98 -43.96,-155.56 -44.20,-157.67"/>
    </edge>
    <edge id=":J138_2" function="internal">
        <lane id=":J138_2_0" index="0" speed="10.31" length="12.04" shape="-52.62,-149.35 -48.99,-152.01 -46.38,-154.29 -44.78,-156.17 -44.20,-157.67"/>
    </edge>
    <edge id=":J138_3" function="internal">
        <lane id=":J138_3_0" index="0" speed="3.65" length="4.67" shape="-52.62,-149.35 -51.18,-149.38 -50.39,-148.95 -50.27,-148.06 -50.80,-146.72"/>
    </edge>
    <edge id=":J138_4" function="internal">
        <lane id=":J138_4_0" index="0" speed="5.14" length="8.03" shape="-45.14,-146.10 -45.33,-147.95 -46.33,-148.67 -48.16,-148.26 -50.80,-146.72"/>
    </edge>
    <edge id=":J138_5" function="internal">
        <lane id=":J138_5_0" index="0" speed="13.89" length="11.61" shape="-45.14,-146.10 -44.20,-157.67"/>
    </edge>
    <edge id=":J138_6" function="internal">
        <lane id=":J138_6_0" index="0" speed="6.71" length="13.49" shape="-45.14,-146.10 -44.26,-150.59 -42.63,-153.11 -40.24,-153.63 -37.10,-152.17"/>
    </edge>
    <edge id=":J139_0" function="internal">
        <lane id=":J139_0_0" index="0" speed="3.65" length="4.67" shape="-52.86,-145.30 -54.31,-145.27 -55.09,-145.70 -55.21,-146.59 -54.68,-147.93"/>
    </edge>
    <edge id=":J140_0" function="internal">
        <lane id=":J140_0_0" index="0" speed="3.65" length="4.67" shape="-32.81,-149.18 -32.28,-147.84 -32.41,-146.95 -33.20,-146.52 -34.64,-146.55"/>
    </edge>
    <edge id=":J141_0" function="internal">
        <lane id=":J141_0_0" index="0" speed="13.89" length="11.60" shape="-37.94,-159.34 -41.43,-159.14 -43.83,-159.12 -46.22,-159.24 -49.72,-159.44"/>
        <lane id=":J141_0_1" index="1" speed="13.89" length="11.60" shape="-38.16,-162.53 -41.54,-162.34 -43.85,-162.33 -46.17,-162.44 -49.55,-162.63"/>
    </edge>
    <edge id=":J141_2" function="internal">
        <lane id=":J141_2_0" index="0" speed="6.21" length="8.15" shape="-44.19,-157.87 -44.43,-159.84 -45.41,-161.30 -47.11,-162.23 -49.55,-162.63"/>
    </edge>
    <edge id=":J142_0" function="internal">
        <lane id=":J142_0_0" index="0" speed="5.63" length="6.48" shape="-18.39,32.10 -15.95,31.98 -14.20,31.59 -13.15,30.92 -12.79,29.98"/>
    </edge>
    <edge id=":J142_1" function="internal">
        <lane id=":J142_1_0" index="0" speed="13.89" length="11.21" shape="-18.39,32.10 -7.20,32.11"/>
        <lane id=":J142_1_1" index="1" speed="13.89" length="11.21" shape="-18.40,35.30 -7.18,35.31"/>
    </edge>
    <edge id=":J143_0" function="internal">
        <lane id=":J143_0_0" index="0" speed="8.46" length="7.90" shape="-6.88,28.53 -9.44,26.95 -11.26,25.02 -12.21,23.00"/>
    </edge>
    <edge id=":J143_1" function="internal">
        <lane id=":J143_1_0" index="0" speed="3.65" length="4.67" shape="-6.88,28.53 -7.61,27.29 -7.63,26.39 -6.92,25.85 -5.49,25.64"/>
    </edge>
    <edge id=":J143_7" function="internal">
        <lane id=":J143_7_0" index="0" speed="8.46" length="2.90" shape="-12.21,23.00 -12.32,22.75 -12.64,20.14"/>
    </edge>
    <edge id=":J143_2" function="internal">
        <lane id=":J143_2_0" index="0" speed="7.76" length="9.68" shape="-19.73,25.98 -16.66,24.71 -14.45,23.31 -13.11,21.79 -12.64,20.14"/>
    </edge>
    <edge id=":J143_3" function="internal">
        <lane id=":J143_3_0" index="0" speed="3.65" length="4.67" shape="-19.73,25.98 -18.33,26.34 -17.70,26.97 -17.81,27.86 -18.69,29.00"/>
    </edge>
    <edge id=":J143_4" function="internal">
        <lane id=":J143_4_0" index="0" speed="5.24" length="6.91" shape="-12.79,29.78 -13.15,28.68 -14.25,28.18 -16.10,28.29 -18.69,29.00"/>
    </edge>
    <edge id=":J143_5" function="internal">
        <lane id=":J143_5_0" index="0" speed="13.89" length="9.64" shape="-12.79,29.78 -12.64,20.14"/>
    </edge>
    <edge id=":J143_6" function="internal">